Version 4
SHEET 1 1168 680
WIRE -112 64 -112 16
WIRE 352 160 352 128
WIRE -112 176 -112 144
WIRE 0 176 -112 176
WIRE 304 176 304 128
WIRE 336 176 304 176
WIRE 512 192 400 192
WIRE 528 192 512 192
WIRE 672 192 608 192
WIRE 1072 192 672 192
WIRE 1088 192 1072 192
WIRE -112 208 -112 176
WIRE 0 208 0 176
WIRE 112 208 80 208
WIRE 224 208 224 160
WIRE 224 208 192 208
WIRE 256 208 224 208
WIRE 336 208 256 208
WIRE 1088 208 1088 192
WIRE 672 240 672 192
WIRE 352 256 352 224
WIRE 384 256 384 224
WIRE 80 336 80 208
WIRE 672 336 672 304
WIRE 256 352 256 208
WIRE 336 352 256 352
WIRE 512 352 512 192
WIRE 512 352 416 352
WIRE -112 384 -112 288
WIRE 80 464 80 416
WIRE 80 576 80 544
FLAG 0 208 0
FLAG -112 16 +5V
FLAG -112 384 -5V
FLAG 352 128 +5V
FLAG 352 256 -5V
FLAG 384 256 +5V
FLAG 304 128 0
FLAG 80 576 0
FLAG 224 80 0
FLAG 1088 288 0
FLAG 1072 192 OUT
FLAG 80 208 IN
FLAG 672 336 0
SYMBOL OpAmps\\AD8041 368 192 R0
SYMATTR InstName U1
SYMBOL voltage -112 48 R0
WINDOW 123 0 0 Left 0
WINDOW 39 0 0 Left 0
SYMATTR InstName V1
SYMATTR Value 5V
SYMBOL voltage -112 192 R0
WINDOW 123 0 0 Left 0
WINDOW 39 0 0 Left 0
SYMATTR InstName V2
SYMATTR Value 5V
SYMBOL voltage 80 320 R0
WINDOW 123 0 0 Left 0
WINDOW 39 0 0 Left 0
SYMATTR InstName V3
SYMATTR Value SINE(0 1 5Meg 0 0 0)
SYMBOL res 432 336 R90
WINDOW 0 0 56 VBottom 2
WINDOW 3 32 56 VTop 2
SYMATTR InstName R1
SYMATTR Value {RFB}
SYMBOL res 208 192 R90
WINDOW 0 0 56 VBottom 2
WINDOW 3 32 56 VTop 2
SYMATTR InstName R2
SYMATTR Value 4.7k
SYMBOL res 208 64 R0
SYMATTR InstName R3
SYMATTR Value 1Meg
SYMBOL res 1072 192 R0
SYMATTR InstName R4
SYMATTR Value 100k
SYMBOL voltage 80 448 R0
WINDOW 123 0 0 Left 0
WINDOW 39 0 0 Left 0
SYMATTR InstName V4
SYMATTR Value SINE(0 0 10000 0 0 0)
SYMBOL schottky 688 304 R180
WINDOW 0 24 64 Left 2
WINDOW 3 24 0 Left 2
SYMATTR InstName D1
SYMATTR Value BAT54
SYMATTR Description Diode
SYMATTR Type diode
SYMBOL res 624 176 R90
WINDOW 0 0 56 VBottom 2
WINDOW 3 32 56 VTop 2
SYMATTR InstName R5
SYMATTR Value 100R
TEXT -248 464 Left 2 !.tran 0 25u 0 startup
TEXT 464 408 Left 2 !.step param RFB list 47k 100k 100Meg
